**
** ABAQUS Input Deck Generated by HyperMesh Version  : 12.0.0.85
** Generated using HyperMesh-Abaqus Template Version : 12.0
**
**   Template:  ABAQUS/STANDARD 3D
**
*NODE
         1,  -1.0           ,  1.0            ,  0.0            
         2,  -0.5           ,  1.0            ,  0.0            
         3,  0.0            ,  1.0            ,  0.0            
         4,  0.5            ,  1.0            ,  0.0            
         5,  1.0            ,  1.0            ,  0.0            
         6,  1.0            ,  1.0            ,  0.5            
         7,  1.0            ,  1.0            ,  1.0            
         8,  1.0            ,  1.0            ,  1.5            
         9,  1.0            ,  1.0            ,  2.0            
        10,  0.5            ,  1.0            ,  2.0            
        11,  0.0            ,  1.0            ,  2.0            
        12,  -0.5           ,  1.0            ,  2.0            
        13,  -1.0           ,  1.0            ,  2.0            
        14,  -1.0           ,  1.0            ,  1.5            
        15,  -1.0           ,  1.0            ,  1.0            
        16,  -1.0           ,  1.0            ,  0.5            
        17,  0.0            ,  1.0            ,  1.5            
        18,  0.0            ,  1.0            ,  1.0            
        19,  0.0            ,  1.0            ,  0.5            
        20,  0.5            ,  1.0            ,  1.0            
** ... 105 like lines cut
**HWCOLOR COMP          1    25
*ELEMENT,TYPE=C3D8R,ELSET=Steel
         1,        18,        20,        21,        17,        26,        27,        28,
        29
         2,        26,        27,        28,        29,        30,        31,        32,
        33
         3,        30,        31,        32,        33,        34,        35,        36,
        37
         4,        34,        35,        36,        37,        38,        39,        40,
        41
         5,        17,        21,        10,        11,        29,        28,        42,
        43
         6,        29,        28,        42,        43,        33,        32,        44,
        45
         7,        33,        32,        44,        45,        37,        36,        46,
        47
         8,        37,        36,        46,        47,        41,        40,        48,
        49
         9,        20,         7,         8,        21,        27,        50,        51,
        28
        10,        27,        50,        51,        28,        31,        52,        53,
        32
** ... 44 like lines cut
**HWCOLOR COMP          2    29
*ELEMENT,TYPE=C3D8R,ELSET=Wood
        33,        15,        23,        24,        14,        86,        87,        88,
        89
        34,        86,        87,        88,        89,        90,        91,        92,
        93
        35,        90,        91,        92,        93,        94,        95,        96,
        97
        36,        94,        95,        96,        97,        98,        99,       100,
       101
        37,        23,        18,        17,        24,        87,        26,        29,
        88
        38,        87,        26,        29,        88,        91,        30,        33,
        92
        39,        91,        30,        33,        92,        95,        34,        37,
        96
        40,        95,        34,        37,        96,        99,        38,        41,
       100
        41,        24,        17,        11,        12,        88,        29,        43,
       102
        42,        88,        29,        43,       102,        92,        33,        45,
       103
** ... 44 like lines cut
**HM_comp_by_property "Wood"    11
*SOLID SECTION, ELSET=Steel, MATERIAL=Steel
**HM_comp_by_property "Wood"    11
*SOLID SECTION, ELSET=Wood, MATERIAL=Wood
*MATERIAL, NAME=Steel
*CONDUCTIVITY,TYPE=ISO
100.0     ,0.0       
*MATERIAL, NAME=Wood
*CONDUCTIVITY,TYPE=ISO
10.0      ,0.0       
**HMNAME LOADSTEP          1 Thermal Analysis
*STEP
*HEAT TRANSFER, STEADY STATE
**HWNAME LOADCOL          1 auto1
**HWCOLOR LOADCOL          1    11
*BOUNDARY
         1,11, ,200.0     
         2,11, ,200.0     
         3,11, ,200.0     
         4,11, ,200.0     
         5,11, ,200.0     
         6,11, ,200.0     
         7,11, ,200.0     
         8,11, ,200.0     
         9,11, ,200.0     
        10,11, ,200.0     
        11,11, ,200.0     
        12,11, ,200.0     
        13,11, ,200.0     
        14,11, ,200.0     
        15,11, ,200.0     
        16,11, ,200.0     
        17,11, ,200.0     
        18,11, ,200.0     
        19,11, ,200.0     
        20,11, ,200.0     
** ... 5 like lines cut
*END STEP
*****
